gem5 Simulator System.  https://www.gem5.org
gem5 is copyrighted software; use the --copyright option for details.

gem5 version [DEVELOP-FOR-23.0]
gem5 compiled Feb 21 2023 12:46:02
gem5 started Feb 21 2023 15:03:56
gem5 executing on challenger, pid 1877213
command line: /home/mkjost/runningtests/gem5/build/ALL/gem5.opt -vv -re --outdir=lookatfail /home/mkjost/runningtests/gem5/tests/gem5/fs/linux/arm/run.py /home/mkjost/runningtests/gem5/tests/gem5/configs/realview-switcheroo-atomic.py /home/mkjost/runningtests/gem5/tests/gem5/resources/arm /home/mkjost/runningtests/gem5

Global frequency set at 1000000000000 ticks per second
